*Heading
** Job name: FFiber3 Model name: Model-1
** Generated by: Abaqus/CAE 2018
*Preprint, echo=NO, model=NO, history=NO, contact=NO
**
** PARTS
**
*Part, name=Part-3
*Node
      1,          88.,          75.,           0.
      2,         -72.,         -75.,           0.
      3,         -72.,          75.,           0.
      4,         -72.,        -175.,           0.
      5,         -32.,        -175.,           0.
      6,          88.,        -175.,           0.
      7,          48.,        -175.,           0.
      8,           8.,        -175.,           0.
      9,         -72.,         175.,           0.
     10,         -32.,         175.,           0.
     11,          88.,         175.,           0.
     12,          48.,         175.,           0.
     13,          88.,         -75.,           0.
     14,           8.,         175.,           0.
     15,         100.,         200.,           0.
     16,        -100.,         200.,           0.
     17,        -100.,        -200.,           0.
     18,         100.,        -200.,           0.
     19,          80.,          83.,           0.
     20,          72.,          75.,           0.
** ... 447 like lines cut
*Element, type=S4R
1, 19, 20, 21,  1
2, 22, 23, 24,  2
3, 25, 26, 27,  3
4, 30,  4, 28, 29
5, 31, 32, 33,  5
6, 36,  6, 34, 35
7, 37, 38, 39,  7
8, 42,  8, 40, 41
 9, 44, 45,  9, 43
10, 10, 46, 47, 48
11, 50, 51, 11, 49
12, 12, 52, 53, 54
13, 55, 56, 57, 13
14, 59, 60, 14, 58
 15,  75,  76,  42, 120
 16,  42,  76, 121,   8
 17, 129,  40, 368, 369
 18, 184, 117, 139, 109
 19, 215, 240,  92, 173
 20, 404, 258, 221, 405
** ... 431 like lines cut
*Nset, nset=_PickedSet2, internal, generate
   1,  467,    1
*Elset, elset=_PickedSet2, internal, generate
  15,  451,    1
*Nset, nset=_PickedSet3, internal
  1,  2,  3,  4,  5,  6,  7,  8,  9, 10, 11, 12, 13, 14, 19, 20
 21, 22, 23, 24, 25, 26, 27, 28, 29, 30, 31, 32, 33, 34, 35, 36
 37, 38, 39, 40, 41, 42, 43, 44, 45, 46, 47, 48, 49, 50, 51, 52
 53, 54, 55, 56, 57, 58, 59, 60
*Elset, elset=_PickedSet3, internal, generate
  1,  14,   1
** Section: Section-2
*Shell Section, elset=_PickedSet3, material=Material-2
1., 5
** Section: Section-1
*Shell Section, elset=_PickedSet2, material=Material-1
1., 5
*End Part
**  
**
** ASSEMBLY
**
*Assembly, name=Assembly
**  
*Instance, name=Part-3-1, part=Part-3
*End Instance
**  
*End Assembly
** 
** MATERIALS
** 
*Material, name=Material-1
*Elastic
30000., 0.2
*Material, name=Material-2
*Elastic
210000., 0.3
