*Heading
** Job name: Fiber4 Model name: Model-1
** Generated by: Abaqus/CAE 2018
*Preprint, echo=NO, model=NO, history=NO, contact=NO
**
** PARTS
**
*Part, name=Part-1
*Node
      1,     239.1698,   34.2370377,           0.
      2,     239.1698,  -34.2370377,           0.
      3,     239.1698,   5.76296425,           0.
      4,        -156.,  -87.5089188,           0.
      5,  -55.9999924,  -87.5089188,           0.
      6,  -105.999992,   87.4910812,           0.
      7,         156.,  -87.5089188,           0.
      8,   55.9999924,  -87.5089188,           0.
      9,         156.,   87.4910812,           0.
     10,   55.9999924,   87.4910812,           0.
     11,   5.99999332,   87.4910812,           0.
     12,   105.999992,   87.4910812,           0.
     13,   5.99999332,  -87.5089188,           0.
     14,   105.999992,  -87.5089188,           0.
     15,  -55.9999924,   87.4910812,           0.
     16,        -156.,   87.4910812,           0.
     17,  -105.999992,  -87.5089188,           0.
     18,    -235.8302,   5.76296425,           0.
     19,    -235.8302,  -34.2370377,           0.
     20,         200.,         100.,           0.
** ... 1377 like lines cut
*Element, type=S4R
1, 527,   1,  67,  68
2, 527,  72,  73,   1
3,  71,  72, 527,  70
4,  69,  70, 527,  68
5,  74,  75, 528,   2
6, 528,  75,  76,  77
7, 528,  79,  80,   2
8, 528,  77,  78,  79
 9,  81,  82, 529,   3
10,  83,  84, 529,  82
11, 529,  84,  85,  86
12, 529,  86,  87,   3
13,  88,  89, 530,   4
14,  90,  91, 530,  89
15,  94,   4, 530,  93
16,  92,  93, 530,  91
17, 531,  96,  97,  98
18, 531,   5,  95,  96
19, 101,   5, 531, 100
20,  99, 100, 531,  98
** ... 1282 like lines cut
*Nset, nset=_PickedSet5, internal
   1,   2,   3,   4,   5,   6,   7,   8,   9,  10,  11,  12,  13,  14,  15,  16
  17,  18,  19,  20,  21,  22,  23,  24,  25,  26,  27,  28,  29,  30,  31,  32
  33,  34,  35,  36,  67,  68,  69,  70,  71,  72,  73,  74,  75,  76,  77,  78
  79,  80,  81,  82,  83,  84,  85,  86,  87,  88,  89,  90,  91,  92,  93,  94
  95,  96,  97,  98,  99, 100, 101, 102, 103, 104, 105, 106, 107, 108, 109, 110
 111, 112, 113, 114, 115, 116, 117, 118, 119, 120, 121, 122, 123, 124, 125, 126
 127, 128, 129, 130, 131, 132, 133, 134, 135, 136, 137, 138, 139, 140, 141, 142
 143, 144, 145, 146, 147, 148, 149, 150, 151, 152, 153, 154, 155, 156, 157, 158
 159, 160, 161, 162, 163, 164, 165, 166, 167, 168, 169, 170, 171, 172, 173, 174
 175, 176, 177, 178, 179, 180, 181, 182, 183, 184, 185, 186, 187, 188, 189, 190
 191, 192, 193, 194, 195, 196, 197, 198, 199, 200, 201, 202, 203, 204, 205, 206
 207, 208, 209, 210, 211, 212, 213, 214, 215, 216, 217, 218, 219, 220, 221, 222
 223, 224, 225, 226, 227, 228, 229, 230, 231, 232, 233, 234, 235, 236, 237, 238
 239, 240, 241, 242, 243, 244, 245, 246, 247, 248, 249, 250, 251, 252, 253, 254
 255, 256, 257, 258, 259, 260, 261, 262, 263, 264, 265, 266, 267, 268, 269, 270
 271, 272, 273, 274, 275, 276, 277, 278, 279, 280, 281, 282, 283, 284, 285, 286
 287, 288, 289, 290, 291, 292, 293, 294, 295, 296, 297, 298, 299, 300, 301, 302
 303, 304, 305, 306, 307, 308, 309, 310, 311, 312, 313, 314, 315, 316, 317, 318
 319, 320, 321, 322, 323, 324, 325, 326, 327, 328, 329, 330, 331, 332, 333, 334
 335, 336, 337, 338, 339, 340, 341, 342, 343, 344, 345, 346, 347, 348, 349, 350
** ... 31 like lines cut
*Elset, elset=_PickedSet5, internal, generate
  77,  707,    1
*Nset, nset=_PickedSet6, internal
   28,   29,   30,   31,   32,   33,   34,   35,   37,   38,   39,   40,   41,   42,   43,   44
   45,   46,   47,   48,   49,   50,   51,   52,   53,   54,   55,   56,   57,   58,   59,   60
   61,   62,   63,   64,   65,   66,  320,  321,  322,  323,  324,  325,  326,  327,  328,  329
  330,  331,  332,  333,  334,  335,  336,  337,  338,  339,  340,  341,  342,  343,  344,  345
  346,  347,  348,  349,  350,  351,  352,  353,  354,  355,  356,  357,  358,  359,  360,  361
  362,  363,  364,  365,  366,  367,  368,  369,  370,  371,  372,  373,  374,  375,  376,  377
  378,  379,  380,  381,  382,  383,  384,  385,  386,  387,  388,  389,  390,  391,  392,  393
  394,  395,  396,  397,  398,  399,  400,  401,  402,  403,  404,  405,  406,  407,  408,  409
  410,  411,  412,  413,  414,  415,  416,  417,  418,  419,  420,  421,  422,  423,  431,  432
  433,  434,  435,  436,  437,  438,  439,  440,  441,  442,  443,  444,  445,  446,  447,  448
  449,  450,  451,  452,  453,  454,  455,  456,  457,  458,  459,  460,  461,  462,  463,  464
  465,  466,  467,  468,  469,  470,  471,  472,  473,  474,  475,  476,  477,  478,  479,  480
  481,  482,  483,  484,  485,  486,  487,  488,  489,  490,  491,  492,  493,  494,  495,  496
  497,  498,  499,  500,  501,  502,  503,  504,  505,  506,  507,  508,  509,  510,  511,  512
  513,  514,  515,  516,  517,  518,  519,  520,  521,  522,  523,  524,  525,  526,  957,  958
  959,  960,  961,  962,  963,  964,  965,  966,  967,  968,  969,  970,  971,  972,  973,  974
  975,  976,  977,  978,  979,  980,  981,  982,  983,  984,  985,  986,  987,  988,  989,  990
  991,  992,  993,  994,  995,  996,  997,  998,  999, 1000, 1001, 1002, 1003, 1004, 1005, 1006
 1007, 1008, 1009, 1010, 1011, 1012, 1013, 1014, 1015, 1016, 1017, 1018, 1019, 1020, 1021, 1022
 1023, 1024, 1025, 1026, 1027, 1028, 1029, 1030, 1031, 1032, 1033, 1034, 1035, 1036, 1037, 1038
** ... 23 like lines cut
*Elset, elset=_PickedSet6, internal, generate
  738,  1298,     1
*Nset, nset=_PickedSet7, internal
  37,  38,  39,  40,  41,  42,  43,  44,  45,  46,  47,  48,  49,  50, 431, 432
 433, 434, 435, 436, 437, 438, 439, 440, 441, 442, 443, 444, 445, 446, 447, 448
 449, 450, 451, 452, 453, 454, 455, 456, 457, 458, 459, 460, 461, 462, 463, 464
 465, 466, 467, 468, 469, 470, 471, 472, 473, 474, 475, 476, 477, 478
*Elset, elset=_PickedSet7, internal, generate
 708,  737,    1
*Nset, nset=_PickedSet8, internal
    1,    2,    3,    4,    5,    6,    7,    8,    9,   10,   11,   12,   13,   14,   15,   16
   17,   18,   19,   36,   67,   68,   69,   70,   71,   72,   73,   74,   75,   76,   77,   78
   79,   80,   81,   82,   83,   84,   85,   86,   87,   88,   89,   90,   91,   92,   93,   94
   95,   96,   97,   98,   99,  100,  101,  102,  103,  104,  105,  106,  107,  108,  109,  110
  111,  112,  113,  114,  115,  116,  117,  118,  119,  120,  121,  122,  123,  124,  125,  126
  127,  128,  129,  130,  131,  132,  133,  134,  135,  136,  137,  138,  139,  140,  141,  142
  143,  144,  145,  146,  147,  148,  149,  150,  151,  152,  153,  154,  155,  156,  157,  158
  159,  160,  161,  162,  163,  164,  165,  166,  167,  168,  169,  170,  171,  172,  173,  174
  175,  176,  177,  178,  179,  180,  181,  182,  183,  184,  185,  186,  187,  188,  189,  190
  191,  192,  193,  194,  195,  196,  197,  198,  199,  424,  425,  426,  427,  428,  429,  430
  527,  528,  529,  530,  531,  532,  533,  534,  535,  536,  537,  538,  539,  540,  541,  542
  543,  544,  545, 1397
*Elset, elset=_PickedSet8, internal
    1,    2,    3,    4,    5,    6,    7,    8,    9,   10,   11,   12,   13,   14,   15,   16
   17,   18,   19,   20,   21,   22,   23,   24,   25,   26,   27,   28,   29,   30,   31,   32
   33,   34,   35,   36,   37,   38,   39,   40,   41,   42,   43,   44,   45,   46,   47,   48
   49,   50,   51,   52,   53,   54,   55,   56,   57,   58,   59,   60,   61,   62,   63,   64
   65,   66,   67,   68,   69,   70,   71,   72,   73,   74,   75,   76, 1299, 1300, 1301, 1302
** Section: Section-4
*Shell Section, elset=_PickedSet8, material=Material-4
1., 5
** Section: Section-1
*Shell Section, elset=_PickedSet5, material=Material-1
1., 5
** Section: Section-3
*Shell Section, elset=_PickedSet7, material=Material-3
1., 5
** Section: Section-2
*Shell Section, elset=_PickedSet6, material=Material-2
1., 5
*End Part
**  
**
** ASSEMBLY
**
*Assembly, name=Assembly
**  
*Instance, name=Part-1-1, part=Part-1
*End Instance
**  
*End Assembly
** 
** MATERIALS
** 
*Material, name=Material-1
*Elastic
210000., 0.3
*Material, name=Material-2
*Elastic
30000., 0.2
*Material, name=Material-3
*Elastic
25000., 0.2
*Material, name=Material-4
*Elastic
206000., 0.2
