*Heading
** Job name: Fiber5 Model name: Model-1
** Generated by: Abaqus/CAE 2018
*Preprint, echo=NO, model=NO, history=NO, contact=NO
**
** PARTS
**
*Part, name=Part-1
*Node
      1,  -293.892639,   404.508484,           0.
      2,  -235.114105,   323.606812,           0.
      3,           0.,         400.,           0.
      4,           0.,         500.,           0.
      5,  -380.422607,   123.606796,           0.
      6,  -475.528259,   154.508499,           0.
      7,  -475.528259,  -154.508499,           0.
      8,  -380.422607,  -123.606796,           0.
      9,   293.892639,   404.508484,           0.
     10,   235.114105,   323.606812,           0.
     11,   380.422607,   123.606796,           0.
     12,   475.528259,   154.508499,           0.
     13,           0.,        -500.,           0.
     14,           0.,        -400.,           0.
     15,  -235.114105,  -323.606812,           0.
     16,  -293.892639,  -404.508484,           0.
     17,  -190.211304,   61.8033981,           0.
     18,  -95.1056519,   30.9016991,           0.
     19,  -58.7785263,   80.9017029,           0.
     20,  -117.557053,   161.803406,           0.
** ... 1329 like lines cut
*Element, type=S4R
 1,   1,  56, 617,  91
 2,  56,  57, 618, 617
 3,  57,  58, 619, 618
 4,  58,  59, 620, 619
 5,  59,   2,  60, 620
 6,  91, 617, 621,  90
 7, 617, 618, 622, 621
 8, 618, 619, 623, 622
 9, 619, 620, 624, 623
10, 620,  60,  61, 624
11,  90, 621, 625,  89
12, 621, 622, 626, 625
13, 622, 623, 627, 626
14, 623, 624, 628, 627
15, 624,  61,  62, 628
16,  89, 625, 629,  88
17, 625, 626, 630, 629
18, 626, 627, 631, 630
19, 627, 628, 632, 631
20, 628,  62,  63, 632
** ... 1018 like lines cut
*Nset, nset=_PickedSet29, internal
   1,   2,   3,   4,  56,  57,  58,  59,  60,  61,  62,  63,  64,  65,  66,  67
  68,  69,  70,  71,  72,  73,  74,  75,  76,  77,  78,  79,  80,  81,  82,  83
  84,  85,  86,  87,  88,  89,  90,  91, 617, 618, 619, 620, 621, 622, 623, 624
 625, 626, 627, 628, 629, 630, 631, 632, 633, 634, 635, 636, 637, 638, 639, 640
 641, 642, 643, 644, 645, 646, 647, 648, 649, 650, 651, 652, 653, 654, 655, 656
 657, 658, 659, 660, 661, 662, 663, 664, 665, 666, 667, 668, 669, 670, 671, 672
*Elset, elset=_PickedSet29, internal, generate
  1,  75,   1
*Nset, nset=_PickedSet30, internal
   9,  10,  11,  12, 128, 129, 130, 131, 132, 133, 134, 135, 136, 137, 138, 139
 140, 141, 142, 143, 144, 145, 146, 147, 148, 149, 150, 151, 152, 153, 154, 155
 156, 157, 158, 159, 160, 161, 162, 163, 729, 730, 731, 732, 733, 734, 735, 736
 737, 738, 739, 740, 741, 742, 743, 744, 745, 746, 747, 748, 749, 750, 751, 752
 753, 754, 755, 756, 757, 758, 759, 760, 761, 762, 763, 764, 765, 766, 767, 768
 769, 770, 771, 772, 773, 774, 775, 776, 777, 778, 779, 780, 781, 782, 783, 784
*Elset, elset=_PickedSet30, internal, generate
 151,  225,    1
*Nset, nset=_PickedSet31, internal
   42,   46,   51,   52,  510,  511,  512,  513,  514,  515,  516,  517,  518,  519,  520,  521
  522,  523,  524,  525,  526,  527,  528,  529,  530,  531,  532,  533,  534,  535,  536,  537
  538,  539,  540,  541,  542,  543,  544,  545, 1245, 1246, 1247, 1248, 1249, 1250, 1251, 1252
 1253, 1254, 1255, 1256, 1257, 1258, 1259, 1260, 1261, 1262, 1263, 1264, 1265, 1266, 1267, 1268
 1269, 1270, 1271, 1272, 1273, 1274, 1275, 1276, 1277, 1278, 1279, 1280, 1281, 1282, 1283, 1284
 1285, 1286, 1287, 1288, 1289, 1290, 1291, 1292, 1293, 1294, 1295, 1296, 1297, 1298, 1299, 1300
*Elset, elset=_PickedSet31, internal, generate
 876,  950,    1
*Nset, nset=_PickedSet32, internal
  13,  14,  15,  16, 164, 165, 166, 167, 168, 169, 170, 171, 172, 173, 174, 175
 176, 177, 178, 179, 180, 181, 182, 183, 184, 185, 186, 187, 188, 189, 190, 191
 192, 193, 194, 195, 196, 197, 198, 199, 785, 786, 787, 788, 789, 790, 791, 792
 793, 794, 795, 796, 797, 798, 799, 800, 801, 802, 803, 804, 805, 806, 807, 808
 809, 810, 811, 812, 813, 814, 815, 816, 817, 818, 819, 820, 821, 822, 823, 824
 825, 826, 827, 828, 829, 830, 831, 832, 833, 834, 835, 836, 837, 838, 839, 840
*Elset, elset=_PickedSet32, internal, generate
 226,  300,    1
*Nset, nset=_PickedSet33, internal
   5,   6,   7,   8,  92,  93,  94,  95,  96,  97,  98,  99, 100, 101, 102, 103
 104, 105, 106, 107, 108, 109, 110, 111, 112, 113, 114, 115, 116, 117, 118, 119
 120, 121, 122, 123, 124, 125, 126, 127, 673, 674, 675, 676, 677, 678, 679, 680
 681, 682, 683, 684, 685, 686, 687, 688, 689, 690, 691, 692, 693, 694, 695, 696
 697, 698, 699, 700, 701, 702, 703, 704, 705, 706, 707, 708, 709, 710, 711, 712
 713, 714, 715, 716, 717, 718, 719, 720, 721, 722, 723, 724, 725, 726, 727, 728
*Elset, elset=_PickedSet33, internal, generate
  76,  150,    1
*Nset, nset=_PickedSet34, internal
   3,  10,  37,  38, 290, 291, 292, 293, 294, 295, 296, 297, 298, 299, 300, 301
 302, 303, 304, 305, 306, 307, 308, 309, 310, 311, 312, 313, 314, 315, 316, 317
 945, 946, 947, 948, 949, 950, 951, 952, 953, 954, 955, 956, 957, 958, 959, 960
 961, 962, 963, 964, 965, 966, 967, 968, 969, 970, 971, 972, 973, 974, 975, 976
 977, 978, 979, 980, 981, 982, 983, 984
*Elset, elset=_PickedSet34, internal, generate
 456,  510,    1
*Nset, nset=_PickedSet35, internal
   11,   41,   42,   43,   44,   45,  346,  347,  348,  349,  350,  351,  352,  353,  354,  355
  356,  357,  358,  359,  360,  361,  362,  363,  364,  365,  366,  367,  368,  369,  370,  371
 1025, 1026, 1027, 1028, 1029, 1030, 1031, 1032, 1033, 1034, 1035, 1036, 1037, 1038, 1039, 1040
 1041, 1042, 1043, 1044, 1045, 1046, 1047, 1048, 1049, 1050, 1051, 1052, 1053, 1054, 1055, 1056
 1057, 1058, 1059, 1060, 1061, 1062, 1063, 1064
*Elset, elset=_PickedSet35, internal, generate
 566,  620,    1
*Nset, nset=_PickedSet36, internal
   14,   46,   47,   48,  372,  373,  374,  375,  376,  377,  378,  379,  380,  381,  382,  383
  384,  385,  386,  387,  388,  389,  390,  391,  392,  393,  394,  395,  396,  397,  398,  399
 1065, 1066, 1067, 1068, 1069, 1070, 1071, 1072, 1073, 1074, 1075, 1076, 1077, 1078, 1079, 1080
 1081, 1082, 1083, 1084, 1085, 1086, 1087, 1088, 1089, 1090, 1091, 1092, 1093, 1094, 1095, 1096
 1097, 1098, 1099, 1100, 1101, 1102, 1103, 1104
*Elset, elset=_PickedSet36, internal, generate
 621,  675,    1
*Nset, nset=_PickedSet37, internal
    8,   15,   39,   40,  318,  319,  320,  321,  322,  323,  324,  325,  326,  327,  328,  329
  330,  331,  332,  333,  334,  335,  336,  337,  338,  339,  340,  341,  342,  343,  344,  345
  985,  986,  987,  988,  989,  990,  991,  992,  993,  994,  995,  996,  997,  998,  999, 1000
 1001, 1002, 1003, 1004, 1005, 1006, 1007, 1008, 1009, 1010, 1011, 1012, 1013, 1014, 1015, 1016
 1017, 1018, 1019, 1020, 1021, 1022, 1023, 1024
*Elset, elset=_PickedSet37, internal, generate
 511,  565,    1
*Nset, nset=_PickedSet38, internal
   2,   5,  35,  36, 262, 263, 264, 265, 266, 267, 268, 269, 270, 271, 272, 273
 274, 275, 276, 277, 278, 279, 280, 281, 282, 283, 284, 285, 286, 287, 288, 289
 905, 906, 907, 908, 909, 910, 911, 912, 913, 914, 915, 916, 917, 918, 919, 920
 921, 922, 923, 924, 925, 926, 927, 928, 929, 930, 931, 932, 933, 934, 935, 936
 937, 938, 939, 940, 941, 942, 943, 944
*Elset, elset=_PickedSet38, internal, generate
 401,  455,    1
*Nset, nset=_PickedSet39, internal
   28,   38,   45,   50,  444,  445,  446,  447,  448,  449,  450,  451,  452,  453,  454,  455
  456,  457,  458,  459,  460,  461,  462,  463,  464,  465, 1161, 1162, 1163, 1164, 1165, 1166
 1167, 1168, 1169, 1170, 1171, 1172, 1173, 1174, 1175, 1176, 1177, 1178, 1179, 1180, 1181, 1182
 1183, 1184, 1185, 1186, 1187, 1188
*Elset, elset=_PickedSet39, internal, generate
 756,  795,    1
*Nset, nset=_PickedSet40, internal
   26,   31,   41,   47,  488,  489,  490,  491,  492,  493,  494,  495,  496,  497,  498,  499
  500,  501,  502,  503,  504,  505,  506,  507,  508,  509, 1217, 1218, 1219, 1220, 1221, 1222
 1223, 1224, 1225, 1226, 1227, 1228, 1229, 1230, 1231, 1232, 1233, 1234, 1235, 1236, 1237, 1238
 1239, 1240, 1241, 1242, 1243, 1244
*Elset, elset=_PickedSet40, internal, generate
 836,  875,    1
*Nset, nset=_PickedSet41, internal
   23,   34,   40,   48,  466,  467,  468,  469,  470,  471,  472,  473,  474,  475,  476,  477
  478,  479,  480,  481,  482,  483,  484,  485,  486,  487, 1189, 1190, 1191, 1192, 1193, 1194
 1195, 1196, 1197, 1198, 1199, 1200, 1201, 1202, 1203, 1204, 1205, 1206, 1207, 1208, 1209, 1210
 1211, 1212, 1213, 1214, 1215, 1216
*Elset, elset=_PickedSet41, internal, generate
 796,  835,    1
*Nset, nset=_PickedSet42, internal
   17,   22,   35,   39,  422,  423,  424,  425,  426,  427,  428,  429,  430,  431,  432,  433
  434,  435,  436,  437,  438,  439,  440,  441,  442,  443, 1133, 1134, 1135, 1136, 1137, 1138
 1139, 1140, 1141, 1142, 1143, 1144, 1145, 1146, 1147, 1148, 1149, 1150, 1151, 1152, 1153, 1154
 1155, 1156, 1157, 1158, 1159, 1160
*Elset, elset=_PickedSet42, internal, generate
 716,  755,    1
*Nset, nset=_PickedSet43, internal
   20,   36,   37,   49,  400,  401,  402,  403,  404,  405,  406,  407,  408,  409,  410,  411
  412,  413,  414,  415,  416,  417,  418,  419,  420,  421, 1105, 1106, 1107, 1108, 1109, 1110
 1111, 1112, 1113, 1114, 1115, 1116, 1117, 1118, 1119, 1120, 1121, 1122, 1123, 1124, 1125, 1126
 1127, 1128, 1129, 1130, 1131, 1132
*Elset, elset=_PickedSet43, internal, generate
 676,  715,    1
*Nset, nset=_PickedSet44, internal
  25,  26,  27,  28,  29,  30, 232, 233, 234, 235, 236, 237, 238, 239, 240, 241
 242, 243, 244, 245, 873, 874, 875, 876, 877, 878, 879, 880, 881, 882, 883, 884
 885, 886, 887, 888
*Elset, elset=_PickedSet44, internal, generate
 351,  375,    1
*Nset, nset=_PickedSet45, internal
  31,  32,  33,  34, 246, 247, 248, 249, 250, 251, 252, 253, 254, 255, 256, 257
 258, 259, 260, 261, 889, 890, 891, 892, 893, 894, 895, 896, 897, 898, 899, 900
 901, 902, 903, 904
*Elset, elset=_PickedSet45, internal, generate
 376,  400,    1
*Nset, nset=_PickedSet46, internal
  21,  22,  23,  24, 216, 217, 218, 219, 220, 221, 222, 223, 224, 225, 226, 227
 228, 229, 230, 231, 857, 858, 859, 860, 861, 862, 863, 864, 865, 866, 867, 868
 869, 870, 871, 872
*Elset, elset=_PickedSet46, internal, generate
 326,  350,    1
*Nset, nset=_PickedSet47, internal
  17,  18,  19,  20, 200, 201, 202, 203, 204, 205, 206, 207, 208, 209, 210, 211
 212, 213, 214, 215, 841, 842, 843, 844, 845, 846, 847, 848, 849, 850, 851, 852
 853, 854, 855, 856
*Elset, elset=_PickedSet47, internal, generate
 301,  325,    1
*Nset, nset=_PickedSet48, internal
   49,   50,   54,   55,  590,  591,  592,  593,  594,  595,  596,  597,  598,  599,  600,  601
  602,  603,  604,  605, 1325, 1326, 1327, 1328, 1329, 1330, 1331, 1332, 1333, 1334, 1335, 1336
 1337, 1338, 1339, 1340, 1341, 1342, 1343
*Elset, elset=_PickedSet48, internal, generate
  999,  1026,     1
*Nset, nset=_PickedSet49, internal
   18,   19,   21,   24,   25,   30,   32,   33,   53,   54,   55,  546,  547,  548,  549,  550
  551,  552,  553,  554,  555,  556,  557,  558,  559,  560,  561,  562,  563,  564,  565,  566
  567,  568,  569,  570,  571,  572,  573,  574,  575,  576,  577,  578,  579,  580,  581,  582
  583,  584,  585,  586,  587,  588,  589,  606,  607,  608,  609,  610,  611,  612,  613,  614
  615,  616, 1301, 1302, 1303, 1304, 1305, 1306, 1307, 1308, 1309, 1310, 1311, 1312, 1313, 1314
 1315, 1316, 1317, 1318, 1319, 1320, 1321, 1322, 1323, 1324, 1344, 1345, 1346, 1347, 1348, 1349
*Elset, elset=_PickedSet49, internal
  951,  952,  953,  954,  955,  956,  957,  958,  959,  960,  961,  962,  963,  964,  965,  966
  967,  968,  969,  970,  971,  972,  973,  974,  975,  976,  977,  978,  979,  980,  981,  982
  983,  984,  985,  986,  987,  988,  989,  990,  991,  992,  993,  994,  995,  996,  997,  998
 1027, 1028, 1029, 1030, 1031, 1032, 1033, 1034, 1035, 1036, 1037, 1038
** Section: Section-1
*Shell Section, elset=_PickedSet29, material=Material-1
1., 5
** Section: Section-5
*Shell Section, elset=_PickedSet33, material=Material-5
1., 5
** Section: Section-2
*Shell Section, elset=_PickedSet30, material=Material-2
1., 5
** Section: Section-4
*Shell Section, elset=_PickedSet32, material=Material-4
1., 5
** Section: Section-8
*Shell Section, elset=_PickedSet47, material=Material-8
1., 5
** Section: Section-6
*Shell Section, elset=_PickedSet46, material=Material-6
1., 5
** Section: Section-2
*Shell Section, elset=_PickedSet44, material=Material-2
1., 5
** Section: Section-4
*Shell Section, elset=_PickedSet45, material=Material-4
1., 5
** Section: Section-10
*Shell Section, elset=_PickedSet38, material=Material-10
1., 5
** Section: Section-6
*Shell Section, elset=_PickedSet34, material=Material-6
1., 5
** Section: Section-9
*Shell Section, elset=_PickedSet37, material=Material-9
1., 5
** Section: Section-7
*Shell Section, elset=_PickedSet35, material=Material-7
1., 5
** Section: Section-8
*Shell Section, elset=_PickedSet36, material=Material-8
1., 5
** Section: Section-9
*Shell Section, elset=_PickedSet43, material=Material-9
1., 5
** Section: Section-8
*Shell Section, elset=_PickedSet42, material=Material-8
1., 5
** Section: Section-1
*Shell Section, elset=_PickedSet39, material=Material-1
1., 5
** Section: Section-5
*Shell Section, elset=_PickedSet41, material=Material-5
1., 5
** Section: Section-3
*Shell Section, elset=_PickedSet40, material=Material-3
1., 5
** Section: Section-3
*Shell Section, elset=_PickedSet31, material=Material-3
1., 5
** Section: Section-1
*Shell Section, elset=_PickedSet49, material=Material-1
1., 5
** Section: Section-10
*Shell Section, elset=_PickedSet48, material=Material-10
1., 5
*End Part
**  
**
** ASSEMBLY
**
*Assembly, name=Assembly
**  
*Instance, name=Part-1-1, part=Part-1
*End Instance
**  
*End Assembly
** 
** MATERIALS
** 
*Material, name=Material-1
*Elastic
210000., 0.3
*Material, name=Material-2
*Elastic
210000., 0.3
*Material, name=Material-3
*Elastic
210000., 0.3
*Material, name=Material-4
*Elastic
210000., 0.3
*Material, name=Material-5
*Elastic
210000., 0.3
*Material, name=Material-6
*Elastic
210000., 0.3
*Material, name=Material-7
*Elastic
210000., 0.3
*Material, name=Material-8
*Elastic
210000., 0.3
*Material, name=Material-9
*Elastic
210000., 0.3
*Material, name=Material-10
*Elastic
210000., 0.3
