*Heading
** Job name: Fiber7 Model name: Model-1
** Generated by: Abaqus/CAE 2018
*Preprint, echo=NO, model=NO, history=NO, contact=NO
**
** PARTS
**
*Part, name=Part-2
*Node
      1,  0.199851409,   2.06269026,           0.
      2, -0.199851632,   2.06269002,           0.
      3, -7.47599671e-08, -0.372964531,           0.
      4,           0.,   2.07039809,           0.
      5,           0.,  -1.07039821,           0.
      6, 0.0999256521,   2.06269002,           0.
      7, -1.09630307e-07,   2.06269002,           0.
      8, -0.0999258682,   2.06269002,           0.
      9,  -0.20563823,   2.16262603,           0.
     10, -0.223071262,   2.26112866,           0.
     11, -0.252952576,   2.35661435,           0.
     12, -0.294520348,    2.4476223,           0.
     13, -0.347122639,   2.53272986,           0.
     14, -0.409936666,   2.61060619,           0.
     15, -0.481979787,   2.68003297,           0.
     16, -0.562125385,   2.73992443,           0.
     17, -0.649119556,   2.78934336,           0.
     18, -0.741602182,   2.82751775,           0.
     19,   -0.8381266,   2.85384965,           0.
     20, -0.937182248,   2.86792803,           0.
** ... 1233 like lines cut
*Element, type=S4R
  1,   48,   49,  257,  284
  2,   41,   42,  289,  258
  3,   44,   45,  259,  287
  4,   10,   11,  368,  302
  5,  371,  379,   14,   15
  6,  300,  371,   15,   16
  7,  263,  300,   16,   17
  8,  299, 1009,   18,   19
  9,   25,   26,  265,  372
 10,   22,   23,  261,  298
 11,  296, 1007,   27,   28
 12, 1006,  294,   32,   33
 13,  411,  510,  368,  383
 14,   31,   32,  294,  375
 15,  265, 1007,  526,  437
 16,  264,  299,   19,   20
 17, 1008,  298, 1011,  688
 18,  262,  332,  294, 1006
 19,  336,  266,  292,  337
 20,   36,   37,  292,  266
** ... 1162 like lines cut
*Nset, nset=_PickedSet2, internal
    1,    2,    3,    4,    5,    6,    7,    8,    9,   10,   11,   12,   13,   14,   15,   16
   17,   18,   19,   20,   21,   22,   23,   24,   25,   26,   27,   28,   29,   30,   31,   32
   33,   34,   35,   36,   37,   38,   39,   40,   41,   42,   43,   44,   45,   46,   47,   48
   49,   50,   51,   52,   53,   54,   55,   56,   57,   58,   59,   60,   61,   62,   63,   64
   65,   66,   67,   68,   69,   70,   71,   72,   73,   74,   75,   76,   77,   78,   79,   80
   81,   82,   83,   84,   85,   86,   87,   88,   89,   90,   91,   92,   93,   94,   95,   96
   97,   98,   99,  100,  101,  102,  103,  104,  105,  106,  107,  108,  109,  110,  111,  112
  113,  114,  115,  116,  117,  118,  119,  120,  121,  122,  123,  124,  125,  126,  127,  128
  129,  130,  131,  132,  133,  134,  135,  136,  137,  138,  139,  140,  141,  142,  143,  144
  145,  146,  147,  148,  149,  150,  151,  152,  153,  154,  155,  156,  157,  158,  159,  160
  161,  162,  163,  164,  165,  166,  167,  168,  169,  170,  171,  172,  173,  174,  175,  176
  177,  178,  179,  180,  181,  182,  183,  184,  185,  186,  187,  188,  189,  190,  191,  192
  193,  194,  195,  196,  197,  198,  199,  200,  201,  202,  203,  204,  205,  206,  207,  208
  209,  210,  211,  212,  213,  214,  215,  216,  217,  218,  219,  220,  221,  222,  223,  224
  225,  226,  227,  228,  229,  230,  231,  232,  233,  234,  235,  236,  237,  238,  239,  240
  241,  242,  243,  244,  245,  246,  247,  248,  249,  250,  251,  252,  253,  254,  255,  256
 1093, 1094, 1095, 1096, 1097, 1098, 1099, 1100, 1101, 1102, 1103, 1104, 1105, 1106, 1107, 1108
 1109, 1110, 1111, 1112, 1113, 1114, 1115, 1116, 1117, 1118, 1119, 1120, 1121, 1122, 1123, 1124
 1125, 1126, 1127, 1128, 1129, 1130, 1131, 1132, 1133, 1134, 1135, 1136, 1137, 1138, 1139, 1140
 1141, 1142, 1143, 1144, 1145, 1146, 1147, 1148, 1149, 1150, 1151, 1152, 1153, 1154, 1155, 1156
** ... 7 like lines cut
*Elset, elset=_PickedSet2, internal, generate
  894,  1182,     1
*Nset, nset=_PickedSet3, internal
    1,    2,    3,    6,    7,    8,    9,   10,   11,   12,   13,   14,   15,   16,   17,   18
   19,   20,   21,   22,   23,   24,   25,   26,   27,   28,   29,   30,   31,   32,   33,   34
   35,   36,   37,   38,   39,   40,   41,   42,   43,   44,   45,   46,   47,   48,   49,   50
   51,   52,   53,   54,   55,   56,   57,   58,   59,   60,   61,   62,   63,   64,   65,   66
   67,   68,   69,   70,   71,   72,   73,   74,   75,   76,   77,   78,   79,   80,   81,   82
   83,   84,   85,   86,   87,   88,   89,   90,   91,   92,   93,   94,   95,   96,   97,   98
   99,  100,  101,  102,  103,  104,  105,  106,  107,  108,  109,  110,  111,  112,  113,  114
  115,  116,  117,  118,  257,  258,  259,  260,  261,  262,  263,  264,  265,  266,  267,  268
  269,  270,  271,  272,  273,  274,  275,  276,  277,  278,  279,  280,  281,  282,  283,  284
  285,  286,  287,  288,  289,  290,  291,  292,  293,  294,  295,  296,  297,  298,  299,  300
  301,  302,  303,  304,  305,  306,  307,  308,  309,  310,  311,  312,  313,  314,  315,  316
  317,  318,  319,  320,  321,  322,  323,  324,  325,  326,  327,  328,  329,  330,  331,  332
  333,  334,  335,  336,  337,  338,  339,  340,  341,  342,  343,  344,  345,  346,  347,  348
  349,  350,  351,  352,  353,  354,  355,  356,  357,  358,  359,  360,  361,  362,  363,  364
  365,  366,  367,  368,  369,  370,  371,  372,  373,  374,  375,  376,  377,  378,  379,  380
  381,  382,  383,  384,  385,  386,  387,  388,  389,  390,  391,  392,  393,  394,  395,  396
  397,  398,  399,  400,  401,  402,  403,  404,  405,  406,  407,  408,  409,  410,  411,  412
  413,  414,  415,  416,  417,  418,  419,  420,  421,  422,  423,  424,  425,  426,  427,  428
  429,  430,  431,  432,  433,  434,  435,  436,  437,  438,  439,  440,  441,  442,  443,  444
  445,  446,  447,  448,  449,  450,  451,  452,  453,  454,  455,  456,  457,  458,  459,  460
** ... 40 like lines cut
*Elset, elset=_PickedSet3, internal, generate
   1,  893,    1
** Section: Section-2
*Shell Section, elset=_PickedSet3, material=Material-2
1., 5
** Section: Section-1
*Shell Section, elset=_PickedSet2, material=Material-1
1., 5
*End Part
**  
**
** ASSEMBLY
**
*Assembly, name=Assembly
**  
*Instance, name=Part-2-1, part=Part-2
*End Instance
**  
*End Assembly
** 
** MATERIALS
** 
*Material, name=Material-1
*Elastic
210000., 0.3
*Material, name=Material-2
*Elastic
210000., 0.3
