*Heading
** Job name: Fiber6 Model name: Model-1
** Generated by: Abaqus/CAE 2018
*Preprint, echo=NO, model=NO, history=NO, contact=NO
**
** PARTS
**
*Part, name=Part-1
*Node
      1,   510.556824,   111.064842,           0.
      2,   458.585114,   250.406418,           0.
      3,         400.,         150.,           0.
      4,   360.280212,    196.72789,           0.
      5,   400.336182,   87.0878067,           0.
      6,  -217.751907,   290.882507,           0.
      7,  -115.957245,   154.900742,           0.
      8,  -65.4427872,   175.458893,           0.
      9,  -134.933868,   361.771729,           0.
     10,  -238.766602,   89.0553436,           0.
     11,  -361.771729,   134.933868,           0.
     12,  -435.343903,   31.1364117,           0.
     13,  -323.860291,   23.1629467,           0.
     14,  -510.556824,  -111.064842,           0.
     15,  -400.336182,  -87.0878067,           0.
     16,  -458.585114,  -250.406418,           0.
     17,  -360.280212,   -196.72789,           0.
     18,   323.860291,  -23.1629467,           0.
     19,   435.343903,  -31.1364117,           0.
     20,   238.766602,  -89.0553436,           0.
** ... 1614 like lines cut
*Element, type=S4R
 1,   1,  52, 527,  74
 2,  52,  53, 528, 527
 3,  53,  54, 529, 528
 4,  54,  55, 530, 529
 5,  55,  56, 531, 530
 6,  56,   2,  57, 531
 7,  74, 527, 532,  73
 8, 527, 528, 533, 532
 9, 528, 529, 534, 533
10, 529, 530, 535, 534
11, 530, 531, 536, 535
12, 531,  57,  58, 536
13,  73, 532, 537,  72
14, 532, 533, 538, 537
15, 533, 534, 539, 538
16, 534, 535, 540, 539
17, 535, 536, 541, 540
18, 536,  58,  59, 541
19,  72, 537, 542,  71
20, 537, 538, 543, 542
** ... 1481 like lines cut
*Nset, nset=_PickedSet4, internal
  28,  30,  31, 251, 252, 253, 254, 255, 256, 257, 258, 259, 260, 261, 262, 263
 264, 265, 266, 267, 268, 269, 270, 271, 884, 885, 886, 887, 888, 889, 890, 891
 892, 893, 894, 895, 896, 897, 898, 899, 900, 901, 902, 903, 904, 905
*Elset, elset=_PickedSet4, internal, generate
 489,  521,    1
*Nset, nset=_PickedSet5, internal
   26,   28,   31,   43,  232,  233,  234,  235,  236,  237,  257,  258,  259,  260,  261,  403
  404,  405,  406,  407,  408,  409,  410,  411,  412,  413, 1242, 1243, 1244, 1245, 1246, 1247
 1248, 1249, 1250, 1251, 1252, 1253, 1254, 1255, 1256, 1257, 1258, 1259, 1260, 1261, 1262, 1263
 1264, 1265, 1266, 1267, 1268, 1269, 1270, 1271, 1272, 1273, 1274, 1275, 1276
*Elset, elset=_PickedSet5, internal, generate
  975,  1021,     1
*Nset, nset=_PickedSet6, internal
    2,   26,   43,   45,  213,  214,  215,  216,  217,  218,  403,  404,  405,  406,  407,  427
  428,  429,  430,  431,  432,  433,  434,  435,  436,  437, 1323, 1324, 1325, 1326, 1327, 1328
 1329, 1330, 1331, 1332, 1333, 1334, 1335, 1336, 1337, 1338, 1339, 1340, 1341, 1342, 1343, 1344
 1345, 1346, 1347, 1348, 1349, 1350, 1351, 1352, 1353, 1354, 1355
*Elset, elset=_PickedSet6, internal, generate
 1082,  1126,     1
*Nset, nset=_PickedSet7, internal
    1,    2,   45,   52,   53,   54,   55,   56,  427,  428,  429,  430,  431,  451,  452,  453
  454,  455,  456,  457,  458,  459, 1397, 1398, 1399, 1400, 1401, 1402, 1403, 1404, 1405, 1406
 1407, 1408, 1409, 1410, 1411, 1412, 1413, 1414, 1415, 1416, 1417
*Elset, elset=_PickedSet7, internal, generate
 1182,  1212,     1
*Nset, nset=_PickedSet8, internal
   14,   16,   37,  138,  139,  140,  141,  142,  316,  317,  318,  319,  320,  327,  328,  329
  330,  331,  332,  333,  334,  335,  997,  998,  999, 1000, 1001, 1002, 1003, 1004, 1005, 1006
 1007, 1008, 1009, 1010, 1011, 1012, 1013, 1014, 1015, 1016, 1017, 1018
*Elset, elset=_PickedSet8, internal, generate
 648,  679,    1
*Nset, nset=_PickedSet9, internal
  16,  35,  36,  37, 299, 300, 301, 302, 303, 310, 311, 312, 313, 314, 315, 316
 317, 318, 319, 320, 321, 322, 323, 324, 325, 326, 963, 964, 965, 966, 967, 968
 969, 970, 971, 972, 973, 974, 975, 976, 977, 978, 979, 980, 981, 982, 983, 984
 985, 986, 987, 988, 989, 990, 991, 992, 993, 994, 995, 996
*Elset, elset=_PickedSet9, internal, generate
 602,  647,    1
*Nset, nset=_PickedSet10, internal
  33,  34,  35,  36, 278, 279, 280, 281, 282, 293, 294, 295, 296, 297, 298, 299
 300, 301, 302, 303, 304, 305, 306, 307, 308, 309, 928, 929, 930, 931, 932, 933
 934, 935, 936, 937, 938, 939, 940, 941, 942, 943, 944, 945, 946, 947, 948, 949
 950, 951, 952, 953, 954, 955, 956, 957, 958, 959, 960, 961, 962
*Elset, elset=_PickedSet10, internal, generate
 555,  601,    1
*Nset, nset=_PickedSet11, internal
  32,  33,  34, 272, 273, 274, 275, 276, 277, 278, 279, 280, 281, 282, 283, 284
 285, 286, 287, 288, 289, 290, 291, 292, 906, 907, 908, 909, 910, 911, 912, 913
 914, 915, 916, 917, 918, 919, 920, 921, 922, 923, 924, 925, 926, 927
*Elset, elset=_PickedSet11, internal, generate
 522,  554,    1
*Nset, nset=_PickedSet12, internal
  14,  15,  16,  17, 125, 126, 127, 128, 129, 130, 131, 138, 139, 140, 141, 142
 143, 144, 145, 146, 147, 148, 149, 150, 151, 152, 153, 154, 660, 661, 662, 663
 664, 665, 666, 667, 668, 669, 670, 671, 672, 673, 674, 675, 676, 677, 678, 679
 680, 681, 682, 683, 684, 685, 686, 687, 688, 689, 690, 691, 692, 693, 694
*Elset, elset=_PickedSet12, internal, generate
 185,  232,    1
*Nset, nset=_PickedSet13, internal
  12,  13,  14,  15, 108, 109, 110, 111, 112, 113, 114, 119, 120, 121, 122, 123
 124, 125, 126, 127, 128, 129, 130, 131, 132, 133, 134, 135, 136, 137, 618, 619
 620, 621, 622, 623, 624, 625, 626, 627, 628, 629, 630, 631, 632, 633, 634, 635
 636, 637, 638, 639, 640, 641, 642, 643, 644, 645, 646, 647, 648, 649, 650, 651
 652, 653, 654, 655, 656, 657, 658, 659
*Elset, elset=_PickedSet13, internal, generate
 129,  184,    1
*Nset, nset=_PickedSet14, internal
  10,  11,  12,  13,  97,  98,  99, 100, 101, 102, 103, 104, 105, 106, 107, 108
 109, 110, 111, 112, 113, 114, 115, 116, 117, 118, 590, 591, 592, 593, 594, 595
 596, 597, 598, 599, 600, 601, 602, 603, 604, 605, 606, 607, 608, 609, 610, 611
 612, 613, 614, 615, 616, 617
*Elset, elset=_PickedSet14, internal, generate
  89,  128,    1
*Nset, nset=_PickedSet15, internal
   10,   11,   38,   39,   97,   98,   99,  100,  101,  102,  103,  338,  339,  340,  341,  342
  343,  344,  347,  348,  349,  350,  351,  352,  353,  354, 1042, 1043, 1044, 1045, 1046, 1047
 1048, 1049, 1050, 1051, 1052, 1053, 1054, 1055, 1056, 1057, 1058, 1059, 1060, 1061, 1062, 1063
 1064, 1065, 1066, 1067, 1068, 1069, 1070, 1071, 1072, 1073, 1074, 1075, 1076, 1077
*Elset, elset=_PickedSet15, internal, generate
 713,  760,    1
*Nset, nset=_PickedSet16, internal
    6,    7,   38,   39,   75,   76,   77,   78,   79,   80,   81,  336,  337,  338,  339,  340
  341,  342,  343,  344,  345,  346, 1019, 1020, 1021, 1022, 1023, 1024, 1025, 1026, 1027, 1028
 1029, 1030, 1031, 1032, 1033, 1034, 1035, 1036, 1037, 1038, 1039, 1040, 1041
*Elset, elset=_PickedSet16, internal, generate
 680,  712,    1
*Nset, nset=_PickedSet17, internal
   6,   7,   8,   9,  75,  76,  77,  78,  79,  80,  81,  82,  83,  84,  85,  86
  87,  88,  89,  90,  91,  92,  93,  94,  95,  96, 562, 563, 564, 565, 566, 567
 568, 569, 570, 571, 572, 573, 574, 575, 576, 577, 578, 579, 580, 581, 582, 583
 584, 585, 586, 587, 588, 589
*Elset, elset=_PickedSet17, internal, generate
 49,  88,   1
*Nset, nset=_PickedSet18, internal
    8,    9,   40,   41,   86,   87,   88,   89,   90,   91,   92,  355,  356,  357,  358,  359
  360,  361,  362,  363,  364,  365,  366,  367,  368,  369,  370,  371,  372,  373,  374,  375
 1078, 1079, 1080, 1081, 1082, 1083, 1084, 1085, 1086, 1087, 1088, 1089, 1090, 1091, 1092, 1093
 1094, 1095, 1096, 1097, 1098, 1099, 1100, 1101, 1102, 1103, 1104, 1105, 1106, 1107, 1108, 1109
 1110, 1111, 1112, 1113, 1114, 1115, 1116, 1117, 1118, 1119, 1120, 1121
*Elset, elset=_PickedSet18, internal, generate
 761,  819,    1
*Nset, nset=_PickedSet19, internal
   30,   40,   41,   42,  358,  359,  360,  361,  362,  363,  364,  365,  366,  367,  368,  369
  376,  377,  378,  379,  380,  381,  382,  383,  384,  385,  386,  387,  388,  389,  390,  391
  392,  393,  394,  395,  396,  397,  398,  399, 1122, 1123, 1124, 1125, 1126, 1127, 1128, 1129
 1130, 1131, 1132, 1133, 1134, 1135, 1136, 1137, 1138, 1139, 1140, 1141, 1142, 1143, 1144, 1145
 1146, 1147, 1148, 1149, 1150, 1151, 1152, 1153, 1154, 1155, 1156, 1157, 1158, 1159, 1160, 1161
 1162, 1163, 1164, 1165, 1166, 1167, 1168, 1169, 1170, 1171, 1172, 1173, 1174, 1175, 1176, 1177
 1178, 1179, 1180, 1181, 1182, 1183, 1184, 1185, 1186, 1187, 1188, 1189, 1190
*Elset, elset=_PickedSet19, internal, generate
 820,  907,    1
*Nset, nset=_PickedSet20, internal
   28,   29,   30,   42,  238,  239,  240,  241,  242,  243,  244,  251,  252,  253,  254,  255
  256,  376,  377,  378,  379,  380,  381,  382,  383,  384,  385,  386,  387,  388,  389,  400
  401,  402, 1191, 1192, 1193, 1194, 1195, 1196, 1197, 1198, 1199, 1200, 1201, 1202, 1203, 1204
 1205, 1206, 1207, 1208, 1209, 1210, 1211, 1212, 1213, 1214, 1215, 1216, 1217, 1218, 1219, 1220
 1221, 1222, 1223, 1224, 1225, 1226, 1227, 1228, 1229, 1230, 1231, 1232, 1233, 1234, 1235, 1236
 1237, 1238, 1239, 1240, 1241
*Elset, elset=_PickedSet20, internal, generate
 908,  974,    1
*Nset, nset=_PickedSet21, internal
  26,  27,  28,  29, 219, 220, 221, 222, 223, 224, 225, 232, 233, 234, 235, 236
 237, 238, 239, 240, 241, 242, 243, 244, 245, 246, 247, 248, 249, 250, 846, 847
 848, 849, 850, 851, 852, 853, 854, 855, 856, 857, 858, 859, 860, 861, 862, 863
 864, 865, 866, 867, 868, 869, 870, 871, 872, 873, 874, 875, 876, 877, 878, 879
 880, 881, 882, 883
*Elset, elset=_PickedSet21, internal, generate
 437,  488,    1
*Nset, nset=_PickedSet22, internal
   2,   4,  26,  27,  57,  58,  59,  60,  61,  62,  63, 213, 214, 215, 216, 217
 218, 219, 220, 221, 222, 223, 224, 225, 226, 227, 228, 229, 230, 231, 800, 801
 802, 803, 804, 805, 806, 807, 808, 809, 810, 811, 812, 813, 814, 815, 816, 817
 818, 819, 820, 821, 822, 823, 824, 825, 826, 827, 828, 829, 830, 831, 832, 833
 834, 835, 836, 837, 838, 839, 840, 841, 842, 843, 844, 845
*Elset, elset=_PickedSet22, internal, generate
 377,  436,    1
*Nset, nset=_PickedSet23, internal
   1,   2,   3,   4,   5,  52,  53,  54,  55,  56,  57,  58,  59,  60,  61,  62
  63,  64,  65,  66,  67,  68,  69,  70,  71,  72,  73,  74, 527, 528, 529, 530
 531, 532, 533, 534, 535, 536, 537, 538, 539, 540, 541, 542, 543, 544, 545, 546
 547, 548, 549, 550, 551, 552, 553, 554, 555, 556, 557, 558, 559, 560, 561
*Elset, elset=_PickedSet23, internal, generate
  1,  48,   1
*Nset, nset=_PickedSet24, internal
   1,   5,  18,  19,  68,  69,  70,  71,  72,  73,  74, 155, 156, 157, 158, 159
 160, 161, 162, 163, 164, 165, 166, 167, 168, 169, 170, 171, 172, 173, 695, 696
 697, 698, 699, 700, 701, 702, 703, 704, 705, 706, 707, 708, 709, 710, 711, 712
 713, 714, 715, 716, 717, 718, 719, 720, 721, 722, 723, 724, 725, 726, 727, 728
 729, 730, 731, 732, 733, 734, 735, 736
*Elset, elset=_PickedSet24, internal, generate
 233,  288,    1
*Nset, nset=_PickedSet25, internal
  18,  19,  20,  21, 155, 156, 157, 158, 159, 160, 161, 174, 175, 176, 177, 178
 179, 180, 181, 182, 183, 184, 185, 186, 187, 188, 189, 190, 737, 738, 739, 740
 741, 742, 743, 744, 745, 746, 747, 748, 749, 750, 751, 752, 753, 754, 755, 756
 757, 758, 759, 760, 761, 762, 763, 764, 765, 766, 767, 768, 769, 770, 771
*Elset, elset=_PickedSet25, internal, generate
 289,  336,    1
*Nset, nset=_PickedSet26, internal
   20,   21,   50,   51,  179,  180,  181,  182,  183,  184,  185,  508,  509,  510,  511,  512
  513,  514,  515,  516,  517,  518,  519,  520,  521,  522, 1577, 1578, 1579, 1580, 1581, 1582
 1583, 1584, 1585, 1586, 1587, 1588, 1589, 1590, 1591, 1592, 1593, 1594, 1595, 1596, 1597, 1598
 1599, 1600, 1601, 1602, 1603, 1604, 1605, 1606, 1607, 1608, 1609, 1610, 1611
*Elset, elset=_PickedSet26, internal, generate
 1422,  1468,     1
*Nset, nset=_PickedSet27, internal
   22,   23,   50,   51,  191,  192,  193,  194,  195,  196,  197,  512,  513,  514,  515,  516
  517,  518,  523,  524,  525,  526, 1612, 1613, 1614, 1615, 1616, 1617, 1618, 1619, 1620, 1621
 1622, 1623, 1624, 1625, 1626, 1627, 1628, 1629, 1630, 1631, 1632, 1633, 1634
*Elset, elset=_PickedSet27, internal, generate
 1469,  1501,     1
*Nset, nset=_PickedSet28, internal
  22,  23,  24,  25, 191, 192, 193, 194, 195, 196, 197, 198, 199, 200, 201, 202
 203, 204, 205, 206, 207, 208, 209, 210, 211, 212, 772, 773, 774, 775, 776, 777
 778, 779, 780, 781, 782, 783, 784, 785, 786, 787, 788, 789, 790, 791, 792, 793
 794, 795, 796, 797, 798, 799
*Elset, elset=_PickedSet28, internal, generate
 337,  376,    1
*Nset, nset=_PickedSet29, internal
   24,   25,   48,   49,  202,  203,  204,  205,  206,  207,  208,  485,  486,  487,  488,  489
  490,  491,  492,  493,  494,  495,  496,  499,  500,  501,  502,  503,  504,  505,  506,  507
 1533, 1534, 1535, 1536, 1537, 1538, 1539, 1540, 1541, 1542, 1543, 1544, 1545, 1546, 1547, 1548
 1549, 1550, 1551, 1552, 1553, 1554, 1555, 1556, 1557, 1558, 1559, 1560, 1561, 1562, 1563, 1564
 1565, 1566, 1567, 1568, 1569, 1570, 1571, 1572, 1573, 1574, 1575, 1576
*Elset, elset=_PickedSet29, internal, generate
 1363,  1421,     1
*Nset, nset=_PickedSet30, internal
   32,   47,   48,   49,  460,  461,  462,  463,  464,  465,  466,  467,  468,  469,  470,  471
  472,  473,  477,  478,  479,  480,  481,  482,  483,  484,  485,  486,  487,  488,  489,  490
  491,  492,  493,  494,  495,  496,  497,  498, 1464, 1465, 1466, 1467, 1468, 1469, 1470, 1471
 1472, 1473, 1474, 1475, 1476, 1477, 1478, 1479, 1480, 1481, 1482, 1483, 1484, 1485, 1486, 1487
 1488, 1489, 1490, 1491, 1492, 1493, 1494, 1495, 1496, 1497, 1498, 1499, 1500, 1501, 1502, 1503
 1504, 1505, 1506, 1507, 1508, 1509, 1510, 1511, 1512, 1513, 1514, 1515, 1516, 1517, 1518, 1519
 1520, 1521, 1522, 1523, 1524, 1525, 1526, 1527, 1528, 1529, 1530, 1531, 1532
*Elset, elset=_PickedSet30, internal, generate
 1275,  1362,     1
*Nset, nset=_PickedSet31, internal
   32,   33,   46,   47,  272,  273,  274,  275,  276,  277,  438,  439,  440,  441,  442,  443
  444,  460,  461,  462,  463,  464,  465,  466,  467,  468,  469,  470,  471,  472,  473,  474
  475,  476, 1418, 1419, 1420, 1421, 1422, 1423, 1424, 1425, 1426, 1427, 1428, 1429, 1430, 1431
 1432, 1433, 1434, 1435, 1436, 1437, 1438, 1439, 1440, 1441, 1442, 1443, 1444, 1445, 1446, 1447
 1448, 1449, 1450, 1451, 1452, 1453, 1454, 1455, 1456, 1457, 1458, 1459, 1460, 1461, 1462, 1463
*Elset, elset=_PickedSet31, internal, generate
 1213,  1274,     1
*Nset, nset=_PickedSet32, internal
   33,   35,   44,   46,  293,  294,  295,  296,  297,  298,  414,  415,  416,  417,  418,  419
  420,  438,  439,  440,  441,  442,  443,  444,  445,  446,  447,  448,  449,  450, 1356, 1357
 1358, 1359, 1360, 1361, 1362, 1363, 1364, 1365, 1366, 1367, 1368, 1369, 1370, 1371, 1372, 1373
 1374, 1375, 1376, 1377, 1378, 1379, 1380, 1381, 1382, 1383, 1384, 1385, 1386, 1387, 1388, 1389
 1390, 1391, 1392, 1393, 1394, 1395, 1396
*Elset, elset=_PickedSet32, internal, generate
 1127,  1181,     1
*Nset, nset=_PickedSet33, internal
   16,   17,   35,   44,  143,  144,  145,  146,  147,  148,  149,  310,  311,  312,  313,  314
  315,  414,  415,  416,  417,  418,  419,  420,  421,  422,  423,  424,  425,  426, 1277, 1278
 1279, 1280, 1281, 1282, 1283, 1284, 1285, 1286, 1287, 1288, 1289, 1290, 1291, 1292, 1293, 1294
 1295, 1296, 1297, 1298, 1299, 1300, 1301, 1302, 1303, 1304, 1305, 1306, 1307, 1308, 1309, 1310
 1311, 1312, 1313, 1314, 1315, 1316, 1317, 1318, 1319, 1320, 1321, 1322
*Elset, elset=_PickedSet33, internal, generate
 1022,  1081,     1
** Section: Section-6
*Shell Section, elset=_PickedSet23, material=Material-6
1., 5
** Section: Section-10
*Shell Section, elset=_PickedSet17, material=Material-10
1., 5
** Section: Section-7
*Shell Section, elset=_PickedSet14, material=Material-7
1., 5
** Section: Section-6
*Shell Section, elset=_PickedSet13, material=Material-6
1., 5
** Section: Section-5
*Shell Section, elset=_PickedSet12, material=Material-5
1., 5
** Section: Section-5
*Shell Section, elset=_PickedSet24, material=Material-5
1., 5
** Section: Section-4
*Shell Section, elset=_PickedSet25, material=Material-4
1., 5
** Section: Section-1
*Shell Section, elset=_PickedSet28, material=Material-1
1., 5
** Section: Section-7
*Shell Section, elset=_PickedSet22, material=Material-7
1., 5
** Section: Section-8
*Shell Section, elset=_PickedSet21, material=Material-8
1., 5
** Section: Section-1
*Shell Section, elset=_PickedSet4, material=Material-1
1., 5
** Section: Section-4
*Shell Section, elset=_PickedSet11, material=Material-4
1., 5
** Section: Section-3
*Shell Section, elset=_PickedSet10, material=Material-3
1., 5
** Section: Section-2
*Shell Section, elset=_PickedSet9, material=Material-2
1., 5
** Section: Section-1
*Shell Section, elset=_PickedSet8, material=Material-1
1., 5
** Section: Section-9
*Shell Section, elset=_PickedSet16, material=Material-9
1., 5
** Section: Section-8
*Shell Section, elset=_PickedSet15, material=Material-8
1., 5
** Section: Section-11
*Shell Section, elset=_PickedSet18, material=Material-11
1., 5
** Section: Section-10
*Shell Section, elset=_PickedSet19, material=Material-10
1., 5
** Section: Section-9
*Shell Section, elset=_PickedSet20, material=Material-9
** ... 31 like lines cut
*End Part
**  
**
** ASSEMBLY
**
*Assembly, name=Assembly
**  
*Instance, name=Part-1-1, part=Part-1
*End Instance
**  
*End Assembly
** 
** MATERIALS
** 
*Material, name=Material-1
*Elastic
210000., 0.3
*Material, name=Material-2
*Elastic
210000., 0.3
*Material, name=Material-3
*Elastic
210000., 0.3
*Material, name=Material-4
*Elastic
210000., 0.3
*Material, name=Material-5
*Elastic
210000., 0.3
*Material, name=Material-6
*Elastic
210000., 0.3
*Material, name=Material-7
*Elastic
210000., 0.3
*Material, name=Material-8
*Elastic
210000., 0.3
*Material, name=Material-9
*Elastic
210000., 0.3
*Material, name=Material-10
*Elastic
210000., 0.3
*Material, name=Material-11
*Elastic
210000., 0.3
